pglib_opf_case200_tamu/pglib_opf_case200_tamu_3regions.m
% -------------------------------------------------------------------------
% Partitioned MATPOWER Case File
% Copyright (c) 2025 Milad Hasanzadeh
% Generated on: 2025-06-10
% This file contains partitioned data for 3 regions


% -------------------- mpc_regionR1 --------------------

mpc_regionR1.version = '2';
mpc_regionR1.baseMVA = 100.0000;
mpc_regionR1.bus = [
%	bus_i       type        Pd          Qd          Gs          Bs          area        Vm          Va          baseKV      zone        Vmax        Vmin        
	 1	 1	 0	 0	 0	 0	 1	 1	 0	 115	 2	 1.1	 0.9;
	 2	 1	 7.39	 2.1	 0	 0	 1	 1	 0	 115	 2	 1.1	 0.9;
	 3	 1	 0	 0	 0	 0	 1	 1	 0	 115	 2	 1.1	 0.9;
	 4	 1	 23.74	 6.77	 0	 0	 1	 1	 0	 115	 2	 1.1	 0.9;
	 5	 1	 0	 0	 0	 0	 1	 1	 0	 115	 2	 1.1	 0.9;
	 6	 1	 42.68	 12.16	 0	 0	 1	 1	 0	 115	 2	 1.1	 0.9;
	 7	 1	 0	 0	 0	 0	 1	 1	 0	 115	 2	 1.1	 0.9;
	 8	 1	 59.09	 16.84	 0	 0	 1	 1	 0	 115	 2	 1.1	 0.9;
	 9	 1	 0	 0	 0	 0	 1	 1	 0	 115	 7	 1.1	 0.9;
	 10	 1	 0.51	 0.15	 0	 0	 1	 1	 0	 115	 7	 1.1	 0.9;
	 11	 1	 6.44	 1.84	 0	 0	 1	 1	 0	 115	 7	 1.1	 0.9;
	 12	 1	 0	 0	 0	 0	 1	 1	 0	 115	 7	 1.1	 0.9;
	 13	 1	 3.57	 1.02	 0	 0	 1	 1	 0	 115	 7	 1.1	 0.9;
	 14	 1	 29.81	 8.5	 0	 0	 1	 1	 0	 115	 7	 1.1	 0.9;
	 15	 1	 2.09	 0.59	 0	 0	 1	 1	 0	 115	 2	 1.1	 0.9;
	 16	 1	 0	 0	 0	 0	 1	 1	 0	 230	 7	 1.1	 0.9;
	 17	 1	 6.34	 1.81	 0	 0	 1	 1	 0	 115	 7	 1.1	 0.9;
	 18	 1	 0	 0	 0	 0	 1	 1	 0	 230	 7	 1.1	 0.9;
	 19	 1	 1.31	 0.37	 0	 0	 1	 1	 0	 115	 7	 1.1	 0.9;
	 20	 1	 4.23	 1.21	 0	 0	 1	 1	 0	 115	 7	 1.1	 0.9;
	 21	 1	 4.73	 1.35	 0	 0	 1	 1	 0	 115	 2	 1.1	 0.9;
	 22	 1	 3.8	 1.08	 0	 0	 1	 1	 0	 115	 2	 1.1	 0.9;
	 23	 1	 20.55	 5.86	 0	 0	 1	 1	 0	 115	 7	 1.1	 0.9;
	 24	 1	 3.6	 1.03	 0	 0	 1	 1	 0	 115	 2	 1.1	 0.9;
	 25	 2	 0	 0	 0	 0	 1	 1	 0	 13.8	 2	 1.1	 0.9;
	 26	 2	 0	 0	 0	 0	 1	 1	 0	 13.8	 2	 1.1	 0.9;
	 27	 2	 0	 0	 0	 0	 1	 1	 0	 13.8	 2	 1.1	 0.9;
	 28	 2	 0	 0	 0	 0	 1	 1	 0	 13.8	 2	 1.1	 0.9;
	 29	 1	 3.14	 0.89	 0	 0	 1	 1	 0	 115	 7	 1.1	 0.9;
	 30	 1	 3.75	 1.07	 0	 0	 1	 1	 0	 115	 2	 1.1	 0.9;
	 31	 1	 8.25	 2.35	 0	 0	 1	 1	 0	 115	 2	 1.1	 0.9;
	 32	 1	 62.85	 17.91	 0	 0	 1	 1	 0	 115	 7	 1.1	 0.9;
	 33	 2	 0	 0	 0	 0	 1	 1	 0	 13.8	 7	 1.1	 0.9;
	 34	 2	 0	 0	 0	 0	 1	 1	 0	 13.8	 7	 1.1	 0.9;
	 35	 2	 0	 0	 0	 0	 1	 1	 0	 13.8	 7	 1.1	 0.9;
	 36	 1	 3	 0.85	 0	 30	 1	 1	 0	 115	 7	 1.1	 0.9;
	 37	 1	 7.33	 2.09	 0	 0	 1	 1	 0	 115	 2	 1.1	 0.9;
	 38	 1	 0	 0	 0	 0	 1	 1	 0	 230	 2	 1.1	 0.9;
	 39	 1	 12.17	 3.47	 0	 0	 1	 1	 0	 115	 2	 1.1	 0.9;
	 40	 1	 0.52	 0.15	 0	 0	 1	 1	 0	 115	 2	 1.1	 0.9;
	 41	 1	 0	 0	 0	 0	 1	 1	 0	 230	 7	 1.1	 0.9;
	 42	 1	 0	 0	 0	 0	 1	 1	 0	 115	 7	 1.1	 0.9;
	 43	 2	 0	 0	 0	 0	 1	 1	 0	 13.8	 7	 1.1	 0.9;
	 44	 2	 0	 0	 0	 0	 1	 1	 0	 13.8	 7	 1.1	 0.9;
	 45	 1	 2.06	 0.59	 0	 0	 1	 1	 0	 115	 7	 1.1	 0.9;
	 46	 1	 52.56	 14.98	 0	 0	 1	 1	 0	 115	 7	 1.1	 0.9;
	 47	 1	 9.42	 2.68	 0	 0	 1	 1	 0	 115	 2	 1.1	 0.9;
	 48	 1	 5.16	 1.47	 0	 0	 1	 1	 0	 115	 4	 1.1	 0.9;
	 49	 1	 10.86	 3.09	 0	 0	 1	 1	 0	 115	 2	 1.1	 0.9;
	 50	 1	 0	 0	 0	 0	 1	 1	 0	 230	 7	 1.1	 0.9;
	 51	 1	 0	 0	 0	 0	 1	 1	 0	 115	 7	 1.1	 0.9;
	 52	 2	 0	 0	 0	 0	 1	 1	 0	 13.8	 7	 1.1	 0.9;
	 53	 2	 0	 0	 0	 0	 1	 1	 0	 13.8	 7	 1.1	 0.9;
	 54	 1	 0	 0	 0	 0	 1	 1	 0	 230	 2	 1.1	 0.9;
	 55	 1	 34.08	 9.71	 0	 0	 1	 1	 0	 115	 2	 1.1	 0.9;
	 56	 1	 3.94	 1.12	 0	 0	 1	 1	 0	 115	 2	 1.1	 0.9;
	 57	 1	 17.55	 5	 0	 0	 1	 1	 0	 115	 2	 1.1	 0.9;
	 58	 1	 0	 0	 0	 0	 1	 1	 0	 230	 2	 1.1	 0.9;
	 59	 1	 0	 0	 0	 0	 1	 1	 0	 115	 2	 1.1	 0.9;
	 60	 2	 0	 0	 0	 0	 1	 1	 0	 13.8	 2	 1.1	 0.9;
	 61	 2	 0	 0	 0	 0	 1	 1	 0	 13.8	 2	 1.1	 0.9;
	 62	 2	 0	 0	 0	 0	 1	 1	 0	 13.8	 2	 1.1	 0.9;
	 63	 1	 0	 0	 0	 0	 1	 1	 0	 230	 7	 1.1	 0.9;
	 64	 1	 77.24	 22.01	 0	 0	 1	 1	 0	 115	 7	 1.1	 0.9;
	 65	 1	 4.4	 1.25	 0	 0	 1	 1	 0	 115	 7	 1.1	 0.9;
	 66	 1	 30.25	 8.62	 0	 0	 1	 1	 0	 115	 2	 1.1	 0.9;
	 67	 1	 26.96	 7.68	 0	 0	 1	 1	 0	 115	 2	 1.1	 0.9;
	 68	 1	 0	 0	 0	 0	 1	 1	 0	 230	 2	 1.1	 0.9;
	 69	 1	 0	 0	 0	 0	 1	 1	 0	 115	 2	 1.1	 0.9;
	 70	 2	 0	 0	 0	 0	 1	 1	 0	 13.8	 2	 1.1	 0.9;
	 71	 2	 0	 0	 0	 0	 1	 1	 0	 13.8	 2	 1.1	 0.9;
	 72	 1	 6.84	 1.95	 0	 0	 1	 1	 0	 115	 2	 1.1	 0.9;
	 73	 1	 8.21	 2.34	 0	 0	 1	 1	 0	 115	 2	 1.1	 0.9;
	 74	 1	 1.42	 0.41	 0	 0	 1	 1	 0	 115	 2	 1.1	 0.9;
	 75	 1	 37.26	 10.62	 0	 0	 1	 1	 0	 115	 2	 1.1	 0.9;
	 76	 1	 9.05	 2.58	 0	 0	 1	 1	 0	 115	 2	 1.1	 0.9;
	 77	 1	 0	 0	 0	 0	 1	 1	 0	 115	 7	 1.1	 0.9;
	 78	 2	 0	 0	 0	 0	 1	 1	 0	 13.8	 7	 1.1	 0.9;
	 79	 1	 32.02	 9.13	 0	 0	 1	 1	 0	 115	 2	 1.1	 0.9;
	 80	 1	 0	 0	 0	 0	 1	 1	 0	 230	 2	 1.1	 0.9;
	 81	 1	 14.76	 4.21	 0	 0	 1	 1	 0	 115	 2	 1.1	 0.9;
	 82	 1	 1.45	 0.41	 0	 0	 1	 1	 0	 115	 2	 1.1	 0.9;
	 83	 1	 11.29	 3.22	 0	 0	 1	 1	 0	 115	 7	 1.1	 0.9;
	 84	 1	 2.1	 0.6	 0	 0	 1	 1	 0	 115	 2	 1.1	 0.9;
	 85	 1	 52.74	 15.03	 0	 0	 1	 1	 0	 115	 7	 1.1	 0.9;
	 86	 1	 21.99	 6.27	 0	 0	 1	 1	 0	 115	 2	 1.1	 0.9;
	 87	 1	 5.37	 1.53	 0	 0	 1	 1	 0	 115	 2	 1.1	 0.9;
];

mpc_regionR1.gen = [
%	bus         Pg          Qg          Qmax        Qmin        Vg          mBase       status      Pmax        Pmin        Pc1         Pc2         Qc1min      Qc1max      Qc2min      Qc2max      ramp_agc    ramp_10     ramp_30     ramp_q      apf         
	 25	 2.6	 0.8	 2.04	-0.44	 1	 4.8	 1	 4	 1.2;
	 26	 1.56	 0.475	 1.22	-0.27	 1	 2.88	 1	 2.4	 0.72;
	 27	 0	 0	 9.16	-2	 1	 21.6	 0	 18	 5.4;
	 28	 0	 0	 9.16	-2	 1	 21.6	 0	 18	 5.4;
	 33	 2.08	 0.635	 1.63	-0.36	 1	 3.84	 1	 3.2	 0.96;
	 34	 3.25	 1	 2.55	-0.55	 1	 6	 1	 5	 1.5;
	 35	 0	 0	 3.21	-0.7	 1	 7.56	 0	 6.3	 1.89;
	 43	 67.6	 3.415	 21.09	-14.26	 1	 118.8	 1	 67.6	 67.6;
	 44	 154.8	 6.83	 42.17	-28.51	 1	 237.6	 1	 154.8	 154.8;
	 52	 1.4	 0.06	 0.36	-0.24	 1	 2.04	 1	 1.4	 1.4;
	 53	 133.5	 5.175	 31.95	-21.6	 1	 180	 1	 133.5	 133.5;
	 60	 84.535	 22.365	 60.6	-15.87	 1	 156.06	 1	 130.05	 39.02;
	 61	 84.535	 22.365	 60.6	-15.87	 1	 156.06	 1	 130.05	 39.02;
	 62	 84.535	 22.365	 60.6	-15.87	 1	 156.06	 1	 130.05	 39.02;
	 70	 290.16	 76.78	 208.02	-54.46	 1	 535.68	 1	 446.4	 133.92;
	 71	 290.16	 76.78	 208.02	-54.46	 1	 535.68	 1	 446.4	 133.92;
	 78	 92.4	 3.47	 21.41	-14.47	 1	 120.6	 1	 92.4	 92.4;
];

mpc_regionR1.branch = [
%	fbus        tbus        r           x           b           rateA       rateB       rateC       ratio       angle       status      angmin      angmax      
	 2	 1	 0.000673	 0.003339	 0	 100	 100	 100	 0	 0	 1	-30	 30;
	 1	 57	 0.018542	 0.119758	 0.02285	 221.1	 221.1	 221.1	 0	 0	 1	-30	 30;
	 59	 1	 0.005615	 0.036268	 0.00692	 221.1	 221.1	 221.1	 0	 0	 1	-30	 30;
	 86	 1	 0.004258	 0.027501	 0.00525	 221.1	 221.1	 221.1	 0	 0	 1	-30	 30;
	 4	 3	 0.000634	 0.003189	 0	 100	 100	 100	 0	 0	 1	-30	 30;
	 3	 31	 0.003756	 0.024259	 0.00463	 221.1	 221.1	 221.1	 0	 0	 1	-30	 30;
	 3	 40	 0.003597	 0.023232	 0.00443	 221.1	 221.1	 221.1	 0	 0	 1	-30	 30;
	 3	 79	 0.008667	 0.05598	 0.01068	 221.1	 221.1	 221.1	 0	 0	 1	-30	 30;
	 6	 5	 0.000585	 0.003967	 0	 100	 100	 100	 0	 0	 1	-30	 30;
	 5	 59	 0.008069	 0.055123	 0.00938	 221.1	 221.1	 221.1	 0	 0	 1	-30	 30;
	 66	 5	 0.004139	 0.026732	 0.0051	 221.1	 221.1	 221.1	 0	 0	 1	-30	 30;
	 5	 74	 0.004446	 0.03097	 0.00506	 221.1	 221.1	 221.1	 0	 0	 1	-30	 30;
	 5	 86	 0.003695	 0.025244	 0.00429	 221.1	 221.1	 221.1	 0	 0	 1	-30	 30;
	 8	 7	 0.000694	 0.003131	 0	 100	 100	 100	 0	 0	 1	-30	 30;
	 59	 7	 0.005561	 0.038742	 0.00633	 221.1	 221.1	 221.1	 0	 0	 1	-30	 30;
	 7	 73	 0.007895	 0.055004	 0.00899	 221.1	 221.1	 221.1	 0	 0	 1	-30	 30;
	 10	 9	 0.000667	 0.003884	 0	 100	 100	 100	 0	 0	 1	-30	 30;
	 11	 9	 0.000528	 0.003639	 0	 100	 100	 100	 0	 0	 1	-30	 30;
	 83	 9	 0.008406	 0.05856	 0.00957	 221.1	 221.1	 221.1	 0	 0	 1	-30	 30;
	 85	 9	 0.008088	 0.05525	 0.0094	 221.1	 221.1	 221.1	 0	 0	 1	-30	 30;
	 13	 12	 0.000552	 0.003328	 0	 100	 100	 100	 0	 0	 1	-30	 30;
	 14	 12	 0.00067	 0.003511	 0	 100	 100	 100	 0	 0	 1	-30	 30;
	 20	 12	 0.010889	 0.07439	 0.01266	 221.1	 221.1	 221.1	 0	 0	 1	-30	 30;
	 29	 12	 0.009615	 0.066986	 0.01095	 221.1	 221.1	 221.1	 0	 0	 1	-30	 30;
	 15	 30	 0.007509	 0.051295	 0.00873	 221.1	 221.1	 221.1	 0	 0	 1	-30	 30;
	 15	 67	 0.011052	 0.075503	 0.01285	 221.1	 221.1	 221.1	 0	 0	 1	-30	 30;
	 17	 16	 0.000936	 0.049195	 0	 160	 160	 160	 1	 0	 1	-30	 30;
	 18	 16	 0.002593	 0.018527	 0.03378	 402.36	 402.36	 402.36	 0	 0	 1	-30	 30;
	 41	 16	 0.0029	 0.020715	 0.03777	 402.36	 402.36	 402.36	 0	 0	 1	-30	 30;
	 23	 17	 0.006971	 0.048561	 0.00794	 221.1	 221.1	 221.1	 0	 0	 1	-30	 30;
	 19	 18	 0.005152	 0.124653	 0	 160	 160	 160	 1	 0	 1	-30	 30;
	 18	 41	 0.001246	 0.008902	 0.01623	 402.36	 402.36	 402.36	 0	 0	 1	-30	 30;
	 18	 50	 0.004166	 0.029763	 0.05426	 402.36	 402.36	 402.36	 0	 0	 1	-30	 30;
	 18	 63	 0.003415	 0.024395	 0.04448	 402.36	 402.36	 402.36	 0	 0	 1	-30	 30;
	 19	 42	 0.004282	 0.02983	 0.00488	 221.1	 221.1	 221.1	 0	 0	 1	-30	 30;
	 36	 20	 0.009836	 0.063526	 0.01212	 221.1	 221.1	 221.1	 0	 0	 1	-30	 30;
	 83	 20	 0.014049	 0.095972	 0.01633	 221.1	 221.1	 221.1	 0	 0	 1	-30	 30;
	 21	 57	 0.011209	 0.072397	 0.01381	 221.1	 221.1	 221.1	 0	 0	 1	-30	 30;
	 21	 72	 0.009665	 0.062426	 0.01191	 221.1	 221.1	 221.1	 0	 0	 1	-30	 30;
	 22	 37	 0.012274	 0.079279	 0.01512	 221.1	 221.1	 221.1	 0	 0	 1	-30	 30;
	 69	 22	 0.009007	 0.062749	 0.01026	 221.1	 221.1	 221.1	 0	 0	 1	-30	 30;
	 23	 42	 0.006539	 0.045556	 0.00745	 221.1	 221.1	 221.1	 0	 0	 1	-30	 30;
	 25	 24	 0.038464	 0.784328	 0	 24.3	 24.3	 24.3	 1	 0	 1	-30	 30;
	 26	 24	 0.08013	 2.192105	 0	 7.4	 7.4	 7.4	 1	 0	 1	-30	 30;
	 27	 24	 0.008544	 0.181406	 0	 65	 65	 65	 1	 0	 1	-30	 30;
	 28	 24	 0.01068	 0.277774	 0	 62.1	 62.1	 62.1	 1	 0	 1	-30	 30;
	 47	 24	 0.010988	 0.070969	 0.01354	 221.1	 221.1	 221.1	 0	 0	 1	-30	 30;
	 24	 81	 0.013487	 0.087112	 0.01662	 221.1	 221.1	 221.1	 0	 0	 1	-30	 30;
	 29	 77	 0.005382	 0.036767	 0.00626	 221.1	 221.1	 221.1	 0	 0	 1	-30	 30;
	 29	 84	 0.00792	 0.055174	 0.00902	 221.1	 221.1	 221.1	 0	 0	 1	-30	 30;
	 30	 51	 0.006652	 0.04544	 0.00773	 221.1	 221.1	 221.1	 0	 0	 1	-30	 30;
	 31	 40	 0.00512	 0.033072	 0.00631	 221.1	 221.1	 221.1	 0	 0	 1	-30	 30;
	 75	 31	 0.003387	 0.023141	 0.00394	 221.1	 221.1	 221.1	 0	 0	 1	-30	 30;
	 31	 86	 0.006606	 0.042664	 0.00814	 221.1	 221.1	 221.1	 0	 0	 1	-30	 30;
	 33	 32	 0.0601	 2.279922	 0	 8.6	 8.6	 8.6	 1	 0	 1	-30	 30;
	 34	 32	 0.024614	 0.503424	 0	 32	 32	 32	 1	 0	 1	-30	 30;
	 35	 32	 0.019539	 0.36204	 0	 35.3	 35.3	 35.3	 1	 0	 1	-30	 30;
	 32	 36	 0.008734	 0.056409	 0.01076	 221.1	 221.1	 221.1	 0	 0	 1	-30	 30;
	 39	 38	 0.000643	 0.030516	 0	 250	 250	 250	 1	 0	 1	-30	 30;
	 38	 58	 0.0047	 0.033574	 0.06121	 402.36	 402.36	 402.36	 0	 0	 1	-30	 30;
	 39	 75	 0.007605	 0.052982	 0.00866	 221.1	 221.1	 221.1	 0	 0	 1	-30	 30;
	 49	 40	 0.00196	 0.012657	 0.00241	 221.1	 221.1	 221.1	 0	 0	 1	-30	 30;
	 40	 55	 0.005245	 0.035833	 0.0061	 221.1	 221.1	 221.1	 0	 0	 1	-30	 30;
	 40	 74	 0.003144	 0.020305	 0.00387	 221.1	 221.1	 221.1	 0	 0	 1	-30	 30;
	 42	 41	 0.001709	 0.054578	 0	 250	 250	 250	 1	 0	 1	-30	 30;
	 43	 41	 0.0021	 0.087749	 0	 130	 130	 130	 1	 0	 1	-30	 30;
	 44	 41	 0.00097	 0.059419	 0	 260	 260	 260	 1	 0	 1	-30	 30;
	 41	 63	 0.0027	 0.019292	 0.03517	 402.36	 402.36	 402.36	 0	 0	 1	-30	 30;
	 42	 45	 0.007749	 0.053987	 0.00883	 221.1	 221.1	 221.1	 0	 0	 1	-30	 30;
	 65	 45	 0.006991	 0.047761	 0.00813	 221.1	 221.1	 221.1	 0	 0	 1	-30	 30;
	 46	 51	 0.006748	 0.046101	 0.00784	 221.1	 221.1	 221.1	 0	 0	 1	-30	 30;
	 46	 64	 0.005168	 0.035307	 0.00601	 221.1	 221.1	 221.1	 0	 0	 1	-30	 30;
	 85	 46	 0.003939	 0.025441	 0.00485	 221.1	 221.1	 221.1	 0	 0	 1	-30	 30;
	 47	 87	 0.024792	 0.160126	 0.03055	 221.1	 221.1	 221.1	 0	 0	 1	-30	 30;
	 84	 48	 0.008774	 0.059942	 0.0102	 221.1	 221.1	 221.1	 0	 0	 1	-30	 30;
	 49	 86	 0.003444	 0.022243	 0.00424	 221.1	 221.1	 221.1	 0	 0	 1	-30	 30;
	 51	 50	 0.002077	 0.058615	 0	 350	 350	 350	 1	 0	 1	-30	 30;
	 52	 50	 0.06	 0.434013	 0	 20	 20	 20	 1	 0	 1	-30	 30;
	 53	 50	 0.00128	 0.062771	 0	 200	 200	 200	 1	 0	 1	-30	 30;
	 63	 50	 0.001295	 0.009255	 0.01687	 402.36	 402.36	 402.36	 0	 0	 1	-30	 30;
	 51	 85	 0.005418	 0.034995	 0.00668	 221.1	 221.1	 221.1	 0	 0	 1	-30	 30;
	 55	 54	 0.000517	 0.034943	 0	 300	 300	 300	 1	 0	 1	-30	 30;
	 68	 54	 0.00389	 0.027793	 0.05067	 402.36	 402.36	 402.36	 0	 0	 1	-30	 30;
	 55	 67	 0.011912	 0.082984	 0.01357	 221.1	 221.1	 221.1	 0	 0	 1	-30	 30;
	 55	 82	 0.01617	 0.104442	 0.01993	 221.1	 221.1	 221.1	 0	 0	 1	-30	 30;
	 66	 56	 0.00718	 0.046377	 0.00885	 221.1	 221.1	 221.1	 0	 0	 1	-30	 30;
	 56	 69	 0.011598	 0.0808	 0.01321	 221.1	 221.1	 221.1	 0	 0	 1	-30	 30;
	 56	 87	 0.009487	 0.064809	 0.01103	 221.1	 221.1	 221.1	 0	 0	 1	-30	 30;
	 59	 58	 0.000329	 0.017481	 0	 400	 400	 400	 1	 0	 1	-30	 30;
	 60	 58	 0.00448	 0.104562	 0	 170	 170	 170	 1	 0	 1	-30	 30;
	 61	 58	 0.00148	 0.066043	 0	 170	 170	 170	 1	 0	 1	-30	 30;
	 62	 58	 0.001	 0.031691	 0	 170	 170	 170	 1	 0	 1	-30	 30;
	 58	 68	 0.001459	 0.010423	 0.019	 402.36	 402.36	 402.36	 0	 0	 1	-30	 30;
	 80	 58	 0.001117	 0.007981	 0.01455	 402.36	 402.36	 402.36	 0	 0	 1	-30	 30;
	 59	 86	 0.006577	 0.04582	 0.00749	 221.1	 221.1	 221.1	 0	 0	 1	-30	 30;
	 64	 63	 0.000753	 0.044453	 0	 250	 250	 250	 1	 0	 1	-30	 30;
	 63	 68	 0.009554	 0.068257	 0.12444	 402.36	 402.36	 402.36	 0	 0	 1	-30	 30;
	 65	 76	 0.022678	 0.157988	 0.02583	 221.1	 221.1	 221.1	 0	 0	 1	-30	 30;
	 69	 68	 0.0002	 0.013328	 0	 400	 400	 400	 1	 0	 1	-30	 30;
	 70	 68	 0.00043	 0.033512	 0	 580	 580	 580	 1	 0	 1	-30	 30;
	 71	 68	 0.00043	 0.027478	 0	 580	 580	 580	 1	 0	 1	-30	 30;
	 80	 68	 0.001958	 0.013985	 0.0255	 402.36	 402.36	 402.36	 0	 0	 1	-30	 30;
	 69	 73	 0.010445	 0.071357	 0.01214	 221.1	 221.1	 221.1	 0	 0	 1	-30	 30;
	 69	 84	 0.014463	 0.093412	 0.01782	 221.1	 221.1	 221.1	 0	 0	 1	-30	 30;
	 74	 79	 0.01019	 0.065817	 0.01256	 221.1	 221.1	 221.1	 0	 0	 1	-30	 30;
	 74	 86	 0.002896	 0.018702	 0.00357	 221.1	 221.1	 221.1	 0	 0	 1	-30	 30;
	 82	 76	 0.006962	 0.048504	 0.00793	 221.1	 221.1	 221.1	 0	 0	 1	-30	 30;
	 78	 77	 0.0025	 0.10181	 0	 130.6	 130.6	 130.6	 1	 0	 1	-30	 30;
	 77	 83	 0.011064	 0.07708	 0.0126	 221.1	 221.1	 221.1	 0	 0	 1	-30	 30;
	 81	 80	 0.000592	 0.045654	 0	 300	 300	 300	 1	 0	 1	-30	 30;
];

mpc_regionR1.gencost = [
%	2           startup     shutdown    n           c(n-1)...c0 
	 2	 0	 0	 3	 0.002	 23.157	 606;
	 2	 0	 0	 3	 0.002	 23.146	 603.6;
	 2	 0	 0	 3	 0.002	 23.252	 627;
	 2	 0	 0	 3	 0.002	 23.252	 627;
	 2	 0	 0	 3	 0.002	 23.152	 604.8;
	 2	 0	 0	 3	 0.002	 23.164	 607.5;
	 2	 0	 0	 3	 0.002	 23.173	 609.45;
	 2	 0	 0	 3	 0	 0	 0;
	 2	 0	 0	 3	 0	 0	 0;
	 2	 0	 0	 3	 0	 0	 0;
	 2	 0	 0	 3	 0	 0	 0;
	 2	 0	 0	 3	 0.002	 19	 610.14;
	 2	 0	 0	 3	 0.002	 19	 610.14;
	 2	 0	 0	 3	 0.002	 19	 610.14;
	 2	 0	 0	 3	 0.002	 19	 1261.33;
	 2	 0	 0	 3	 0.002	 19	 1261.33;
	 2	 0	 0	 3	 0	 0	 0;
];


% -------------------- mpc_regionR2 --------------------

mpc_regionR2.version = '2';
mpc_regionR2.baseMVA = 100.0000;
mpc_regionR2.bus = [
%	bus_i       type        Pd          Qd          Gs          Bs          area        Vm          Va          baseKV      zone        Vmax        Vmin        
	 1	 1	 0	 0	 0	 0	 1	 1	 0	 115	 6	 1.1	 0.9;
	 2	 1	 7.95	 2.26	 0	 0	 1	 1	 0	 115	 6	 1.1	 0.9;
	 3	 1	 0	 0	 0	 0	 1	 1	 0	 115	 6	 1.1	 0.9;
	 4	 1	 1.35	 0.39	 0	 0	 1	 1	 0	 115	 6	 1.1	 0.9;
	 5	 1	 38.34	 10.93	 0	 0	 1	 1	 0	 115	 5	 1.1	 0.9;
	 6	 1	 1.82	 0.52	 0	 0	 1	 1	 0	 115	 6	 1.1	 0.9;
	 7	 2	 0	 0	 0	 0	 1	 1	 0	 13.8	 6	 1.1	 0.9;
	 8	 2	 0	 0	 0	 0	 1	 1	 0	 13.8	 6	 1.1	 0.9;
	 9	 2	 0	 0	 0	 0	 1	 1	 0	 13.8	 6	 1.1	 0.9;
	 10	 2	 0	 0	 0	 0	 1	 1	 0	 13.8	 6	 1.1	 0.9;
	 11	 2	 0	 0	 0	 0	 1	 1	 0	 13.8	 6	 1.1	 0.9;
	 12	 1	 0	 0	 0	 0	 1	 1	 0	 115	 6	 1.1	 0.9;
	 13	 2	 0	 0	 0	 0	 1	 1	 0	 13.8	 6	 1.1	 0.9;
	 14	 1	 18.76	 5.35	 0	 0	 1	 1	 0	 115	 6	 1.1	 0.9;
	 15	 1	 1.48	 0.42	 0	 0	 1	 1	 0	 115	 5	 1.1	 0.9;
	 16	 1	 0	 0	 0	 0	 1	 1	 0	 230	 6	 1.1	 0.9;
	 17	 1	 7.6	 2.17	 0	 0	 1	 1	 0	 115	 6	 1.1	 0.9;
	 18	 1	 2.96	 0.84	 0	 0	 1	 1	 0	 115	 7	 1.1	 0.9;
	 19	 1	 37.39	 10.66	 0	 80	 1	 1	 0	 115	 5	 1.1	 0.9;
	 20	 1	 8.82	 2.51	 0	 0	 1	 1	 0	 115	 5	 1.1	 0.9;
	 21	 1	 0	 0	 0	 0	 1	 1	 0	 230	 7	 1.1	 0.9;
	 22	 1	 15.44	 4.4	 0	 0	 1	 1	 0	 115	 7	 1.1	 0.9;
	 23	 1	 2.09	 0.6	 0	 0	 1	 1	 0	 115	 6	 1.1	 0.9;
	 24	 1	 26.78	 7.63	 0	 0	 1	 1	 0	 115	 5	 1.1	 0.9;
	 25	 1	 45.8	 13.05	 0	 0	 1	 1	 0	 115	 5	 1.1	 0.9;
	 26	 2	 0	 0	 0	 0	 1	 1	 0	 13.8	 5	 1.1	 0.9;
	 27	 2	 0	 0	 0	 0	 1	 1	 0	 13.8	 5	 1.1	 0.9;
	 28	 2	 0	 0	 0	 0	 1	 1	 0	 13.8	 5	 1.1	 0.9;
	 29	 2	 0	 0	 0	 0	 1	 1	 0	 13.8	 5	 1.1	 0.9;
	 30	 2	 0	 0	 0	 0	 1	 1	 0	 13.8	 5	 1.1	 0.9;
	 31	 2	 0	 0	 0	 0	 1	 1	 0	 13.8	 5	 1.1	 0.9;
	 32	 2	 0	 0	 0	 0	 1	 1	 0	 13.8	 5	 1.1	 0.9;
	 33	 1	 7.94	 2.26	 0	 0	 1	 1	 0	 115	 6	 1.1	 0.9;
	 34	 1	 5.38	 1.53	 0	 0	 1	 1	 0	 115	 5	 1.1	 0.9;
	 35	 1	 8.71	 2.48	 0	 0	 1	 1	 0	 115	 5	 1.1	 0.9;
	 36	 1	 2.77	 0.79	 0	 0	 1	 1	 0	 115	 5	 1.1	 0.9;
	 37	 1	 7.31	 2.08	 0	 0	 1	 1	 0	 115	 5	 1.1	 0.9;
	 38	 1	 0	 0	 0	 0	 1	 1	 0	 230	 5	 1.1	 0.9;
	 39	 1	 23.61	 6.73	 0	 0	 1	 1	 0	 115	 5	 1.1	 0.9;
	 40	 1	 7.74	 2.21	 0	 0	 1	 1	 0	 115	 5	 1.1	 0.9;
	 41	 1	 0	 0	 0	 0	 1	 1	 0	 230	 7	 1.1	 0.9;
	 42	 1	 0	 0	 0	 0	 1	 1	 0	 115	 7	 1.1	 0.9;
	 43	 3	 0	 0	 0	 0	 1	 1	 0	 13.8	 7	 1.1	 0.9;
	 44	 1	 16.79	 4.78	 0	 0	 1	 1	 0	 115	 6	 1.1	 0.9;
	 45	 1	 7.23	 2.06	 0	 0	 1	 1	 0	 115	 5	 1.1	 0.9;
	 46	 1	 0	 0	 0	 0	 1	 1	 0	 115	 6	 1.1	 0.9;
	 47	 2	 0	 0	 0	 0	 1	 1	 0	 13.8	 6	 1.1	 0.9;
	 48	 2	 0	 0	 0	 0	 1	 1	 0	 13.8	 6	 1.1	 0.9;
	 49	 1	 4.26	 1.21	 0	 0	 1	 1	 0	 115	 6	 1.1	 0.9;
];

mpc_regionR2.gen = [
%	bus         Pg          Qg          Qmax        Qmin        Vg          mBase       status      Pmax        Pmin        Pc1         Pc2         Qc1min      Qc1max      Qc2min      Qc2max      ramp_agc    ramp_10     ramp_30     ramp_q      apf         
	 7	 2.945	 0.78	 2.11	-0.55	 1	 5.44	 1	 4.53	 1.36;
	 8	 2.945	 0.78	 2.11	-0.55	 1	 5.44	 1	 4.53	 1.36;
	 9	 2.945	 0.78	 2.11	-0.55	 1	 5.44	 1	 4.53	 1.36;
	 10	 2.945	 0.78	 2.11	-0.55	 1	 5.44	 1	 4.53	 1.36;
	 11	 5.895	 1.56	 4.23	-1.11	 1	 10.88	 1	 9.07	 2.72;
	 13	 86.5	 5.19	 32.04	-21.66	 1	 180.48	 1	 86.5	 86.5;
	 26	 0	 0	 6.11	-1.33	 1	 14.4	 0	 12	 3.6;
	 27	 0	 0	 13.23	-2.89	 1	 31.2	 0	 26	 7.8;
	 28	 0	 0	 4.78	-1.04	 1	 11.28	 0	 9.4	 2.82;
	 29	 6.11	 1.87	 4.78	-1.04	 1	 11.28	 1	 9.4	 2.82;
	 30	 0	 0	 4.78	-1.04	 1	 11.28	 0	 9.4	 2.82;
	 31	 0	 0	 4.78	-1.04	 1	 11.28	 0	 9.4	 2.82;
	 32	 6.11	 1.87	 4.78	-1.04	 1	 11.28	 1	 9.4	 2.82;
	 43	 369.95	 81.39	 209.45	-46.67	 1	 682.98	 1	 569.15	 170.75;
	 47	 0	 0	 34.36	-7.49	 1	 81	 0	 67.5	 20.25;
	 48	 0	 0	 34.36	-7.49	 1	 81	 0	 67.5	 20.25;
];

mpc_regionR2.branch = [
%	fbus        tbus        r           x           b           rateA       rateB       rateC       ratio       angle       status      angmin      angmax      
	 2	 1	 0.000694	 0.003337	 0	 100	 100	 100	 0	 0	 1	-30	 30;
	 6	 1	 0.006246	 0.043513	 0.00711	 221.1	 221.1	 221.1	 0	 0	 1	-30	 30;
	 1	 12	 0.007877	 0.054875	 0.00897	 221.1	 221.1	 221.1	 0	 0	 1	-30	 30;
	 4	 3	 0.00061	 0.003071	 0	 100	 100	 100	 0	 0	 1	-30	 30;
	 3	 12	 0.007643	 0.053244	 0.0087	 221.1	 221.1	 221.1	 0	 0	 1	-30	 30;
	 49	 3	 0.009909	 0.064003	 0.01221	 221.1	 221.1	 221.1	 0	 0	 1	-30	 30;
	 5	 19	 0.004595	 0.029676	 0.00566	 221.1	 221.1	 221.1	 0	 0	 1	-30	 30;
	 5	 25	 0.003165	 0.021623	 0.00368	 221.1	 221.1	 221.1	 0	 0	 1	-30	 30;
	 5	 40	 0.009408	 0.060766	 0.01159	 221.1	 221.1	 221.1	 0	 0	 1	-30	 30;
	 7	 6	 0.027149	 0.532021	 0	 28.9	 28.9	 28.9	 1	 0	 1	-30	 30;
	 8	 6	 0.021719	 0.404167	 0	 28.7	 28.7	 28.7	 1	 0	 1	-30	 30;
	 9	 6	 0.027149	 0.612711	 0	 24.3	 24.3	 24.3	 1	 0	 1	-30	 30;
	 10	 6	 0.021719	 0.379817	 0	 24.3	 24.3	 24.3	 1	 0	 1	-30	 30;
	 11	 6	 0.02121	 0.576549	 0	 35.3	 35.3	 35.3	 1	 0	 1	-30	 30;
	 6	 14	 0.007959	 0.054369	 0.00925	 221.1	 221.1	 221.1	 0	 0	 1	-30	 30;
	 13	 12	 0.00128	 0.10157	 0	 195.5	 195.5	 195.5	 1	 0	 1	-30	 30;
	 14	 44	 0.008894	 0.06076	 0.01034	 221.1	 221.1	 221.1	 0	 0	 1	-30	 30;
	 15	 19	 0.021463	 0.149525	 0.02444	 221.1	 221.1	 221.1	 0	 0	 1	-30	 30;
	 15	 24	 0.020594	 0.14347	 0.02345	 221.1	 221.1	 221.1	 0	 0	 1	-30	 30;
	 17	 16	 0.00097	 0.042371	 0	 250	 250	 250	 1	 0	 1	-30	 30;
	 16	 38	 0.006598	 0.047137	 0.08594	 402.36	 402.36	 402.36	 0	 0	 1	-30	 30;
	 17	 46	 0.003845	 0.026265	 0.00447	 221.1	 221.1	 221.1	 0	 0	 1	-30	 30;
	 22	 18	 0.01062	 0.073986	 0.01209	 221.1	 221.1	 221.1	 0	 0	 1	-30	 30;
	 18	 24	 0.015858	 0.102423	 0.01954	 221.1	 221.1	 221.1	 0	 0	 1	-30	 30;
	 18	 42	 0.010903	 0.070421	 0.01343	 221.1	 221.1	 221.1	 0	 0	 1	-30	 30;
	 19	 36	 0.010698	 0.074531	 0.01218	 221.1	 221.1	 221.1	 0	 0	 1	-30	 30;
	 19	 39	 0.007093	 0.049413	 0.00808	 221.1	 221.1	 221.1	 0	 0	 1	-30	 30;
	 25	 20	 0.005281	 0.034111	 0.00651	 221.1	 221.1	 221.1	 0	 0	 1	-30	 30;
	 20	 37	 0.00795	 0.055386	 0.00905	 221.1	 221.1	 221.1	 0	 0	 1	-30	 30;
	 22	 21	 0.000786	 0.063023	 0	 200	 200	 200	 1	 0	 1	-30	 30;
	 21	 38	 0.008903	 0.063604	 0.11596	 402.36	 402.36	 402.36	 0	 0	 1	-30	 30;
	 41	 21	 0.001063	 0.007593	 0.01384	 402.36	 402.36	 402.36	 0	 0	 1	-30	 30;
	 23	 46	 0.008728	 0.05637	 0.01075	 221.1	 221.1	 221.1	 0	 0	 1	-30	 30;
	 26	 25	 0.008207	 0.11301	 0	 58.1	 58.1	 58.1	 1	 0	 1	-30	 30;
	 27	 25	 0.0074	 0.301657	 0	 65	 65	 65	 1	 0	 1	-30	 30;
	 28	 25	 0.016368	 0.382075	 0	 42	 42	 42	 1	 0	 1	-30	 30;
	 29	 25	 0.010476	 0.196499	 0	 42	 42	 42	 1	 0	 1	-30	 30;
	 30	 25	 0.018	 0.490983	 0	 40	 40	 40	 1	 0	 1	-30	 30;
	 31	 25	 0.016368	 0.396417	 0	 40	 40	 40	 1	 0	 1	-30	 30;
	 32	 25	 0.016368	 0.374902	 0	 35.6	 35.6	 35.6	 1	 0	 1	-30	 30;
	 25	 39	 0.00579	 0.039557	 0.00673	 221.1	 221.1	 221.1	 0	 0	 1	-30	 30;
	 33	 44	 0.009866	 0.0674	 0.01147	 221.1	 221.1	 221.1	 0	 0	 1	-30	 30;
	 46	 33	 0.011644	 0.081116	 0.01326	 221.1	 221.1	 221.1	 0	 0	 1	-30	 30;
	 40	 34	 0.015296	 0.106558	 0.01742	 221.1	 221.1	 221.1	 0	 0	 1	-30	 30;
	 49	 34	 0.024005	 0.155042	 0.02958	 221.1	 221.1	 221.1	 0	 0	 1	-30	 30;
	 35	 36	 0.015373	 0.099293	 0.01894	 221.1	 221.1	 221.1	 0	 0	 1	-30	 30;
	 35	 37	 0.008572	 0.055363	 0.01056	 221.1	 221.1	 221.1	 0	 0	 1	-30	 30;
	 36	 42	 0.017952	 0.12264	 0.02087	 221.1	 221.1	 221.1	 0	 0	 1	-30	 30;
	 39	 38	 0.000495	 0.036157	 0	 250	 250	 250	 1	 0	 1	-30	 30;
	 40	 45	 0.026393	 0.183866	 0.03006	 221.1	 221.1	 221.1	 0	 0	 1	-30	 30;
	 40	 49	 0.012185	 0.078698	 0.01501	 221.1	 221.1	 221.1	 0	 0	 1	-30	 30;
	 42	 41	 0.001394	 0.044762	 0	 400	 400	 400	 1	 0	 1	-30	 30;
	 43	 41	 0.0003	 0.007815	 0	 740	 740	 740	 1	 0	 1	-30	 30;
	 47	 46	 0.00285	 0.060038	 0	 87.7	 87.7	 87.7	 1	 0	 1	-30	 30;
	 48	 46	 0.00285	 0.191484	 0	 87.7	 87.7	 87.7	 1	 0	 1	-30	 30;
];

mpc_regionR2.gencost = [
%	2           startup     shutdown    n           c(n-1)...c0 
	 2	 0	 0	 3	 0.002	 19	 236.12;
	 2	 0	 0	 3	 0.002	 19	 236.12;
	 2	 0	 0	 3	 0.002	 19	 236.12;
	 2	 0	 0	 3	 0.002	 19	 236.12;
	 2	 0	 0	 3	 0.002	 19	 236.24;
	 2	 0	 0	 3	 0	 0	 0;
	 2	 0	 0	 3	 0.002	 23.211	 618;
	 2	 0	 0	 3	 0.002	 23.306	 639;
	 2	 0	 0	 3	 0.002	 23.194	 614.1;
	 2	 0	 0	 3	 0.002	 23.194	 614.1;
	 2	 0	 0	 3	 0.002	 23.194	 614.1;
	 2	 0	 0	 3	 0.002	 23.194	 614.1;
	 2	 0	 0	 3	 0.002	 23.194	 614.1;
	 2	 0	 0	 3	 0	 6.71	 1272.13;
	 2	 0	 0	 3	 0.002	 23.588	 701.25;
	 2	 0	 0	 3	 0.002	 23.588	 701.25;
];


% -------------------- mpc_regionR3 --------------------

mpc_regionR3.version = '2';
mpc_regionR3.baseMVA = 100.0000;
mpc_regionR3.bus = [
%	bus_i       type        Pd          Qd          Gs          Bs          area        Vm          Va          baseKV      zone        Vmax        Vmin        
	 1	 1	 0	 0	 0	 0	 1	 1	 0	 115	 4	 1.1	 0.9;
	 2	 1	 1.7	 0.48	 0	 0	 1	 1	 0	 115	 4	 1.1	 0.9;
	 3	 1	 0	 0	 0	 0	 1	 1	 0	 115	 4	 1.1	 0.9;
	 4	 1	 0.3	 0.09	 0	 0	 1	 1	 0	 115	 4	 1.1	 0.9;
	 5	 1	 2.52	 0.72	 0	 0	 1	 1	 0	 115	 4	 1.1	 0.9;
	 6	 1	 0	 0	 0	 0	 1	 1	 0	 230	 4	 1.1	 0.9;
	 7	 1	 0	 0	 0	 30	 1	 1	 0	 115	 4	 1.1	 0.9;
	 8	 1	 44.76	 12.76	 0	 0	 1	 1	 0	 115	 4	 1.1	 0.9;
	 9	 1	 0	 0	 0	 0	 1	 1	 0	 115	 4	 1.1	 0.9;
	 10	 1	 0.71	 0.2	 0	 0	 1	 1	 0	 115	 4	 1.1	 0.9;
	 11	 1	 0.77	 0.22	 0	 0	 1	 1	 0	 115	 4	 1.1	 0.9;
	 12	 1	 1.13	 0.32	 0	 0	 1	 1	 0	 115	 4	 1.1	 0.9;
	 13	 1	 4.61	 1.31	 0	 0	 1	 1	 0	 115	 4	 1.1	 0.9;
	 14	 1	 0	 0	 0	 0	 1	 1	 0	 115	 4	 1.1	 0.9;
	 15	 1	 1.41	 0.4	 0	 0	 1	 1	 0	 115	 4	 1.1	 0.9;
	 16	 1	 2.4	 0.68	 0	 0	 1	 1	 0	 115	 4	 1.1	 0.9;
	 17	 1	 0	 0	 0	 0	 1	 1	 0	 115	 4	 1.1	 0.9;
	 18	 1	 2.33	 0.67	 0	 0	 1	 1	 0	 115	 4	 1.1	 0.9;
	 19	 1	 0	 0	 0	 0	 1	 1	 0	 115	 4	 1.1	 0.9;
	 20	 1	 20.76	 5.92	 0	 0	 1	 1	 0	 115	 4	 1.1	 0.9;
	 21	 1	 7.41	 2.11	 0	 0	 1	 1	 0	 115	 4	 1.1	 0.9;
	 22	 1	 2.04	 0.58	 0	 0	 1	 1	 0	 115	 4	 1.1	 0.9;
	 23	 1	 10.62	 3.03	 0	 0	 1	 1	 0	 115	 4	 1.1	 0.9;
	 24	 1	 4.15	 1.18	 0	 0	 1	 1	 0	 115	 4	 1.1	 0.9;
	 25	 1	 1.54	 0.44	 0	 0	 1	 1	 0	 115	 4	 1.1	 0.9;
	 26	 1	 2.66	 0.76	 0	 0	 1	 1	 0	 115	 4	 1.1	 0.9;
	 27	 1	 2.82	 0.8	 0	 0	 1	 1	 0	 115	 4	 1.1	 0.9;
	 28	 1	 21.41	 6.1	 0	 0	 1	 1	 0	 115	 4	 1.1	 0.9;
	 29	 1	 7.98	 2.27	 0	 0	 1	 1	 0	 115	 4	 1.1	 0.9;
	 30	 1	 0	 0	 0	 0	 1	 1	 0	 115	 4	 1.1	 0.9;
	 31	 2	 0	 0	 0	 0	 1	 1	 0	 13.8	 4	 1.1	 0.9;
	 32	 2	 0	 0	 0	 0	 1	 1	 0	 13.8	 4	 1.1	 0.9;
	 33	 2	 0	 0	 0	 0	 1	 1	 0	 13.8	 4	 1.1	 0.9;
	 34	 2	 0	 0	 0	 0	 1	 1	 0	 13.8	 4	 1.1	 0.9;
	 35	 2	 0	 0	 0	 0	 1	 1	 0	 13.8	 4	 1.1	 0.9;
	 36	 2	 0	 0	 0	 0	 1	 1	 0	 13.8	 4	 1.1	 0.9;
	 37	 2	 0	 0	 0	 0	 1	 1	 0	 13.8	 4	 1.1	 0.9;
	 38	 1	 4.83	 1.38	 0	 0	 1	 1	 0	 115	 4	 1.1	 0.9;
	 39	 1	 0	 0	 0	 0	 1	 1	 0	 230	 3	 1.1	 0.9;
	 40	 1	 49.34	 14.06	 0	 0	 1	 1	 0	 115	 3	 1.1	 0.9;
	 41	 1	 3.06	 0.87	 0	 0	 1	 1	 0	 115	 4	 1.1	 0.9;
	 42	 2	 0	 0	 0	 0	 1	 1	 0	 13.8	 4	 1.1	 0.9;
	 43	 1	 1.8	 0.51	 0	 0	 1	 1	 0	 115	 4	 1.1	 0.9;
	 44	 1	 1.16	 0.33	 0	 0	 1	 1	 0	 115	 4	 1.1	 0.9;
	 45	 1	 17.54	 5	 0	 0	 1	 1	 0	 115	 3	 1.1	 0.9;
	 46	 1	 0	 0	 0	 0	 1	 1	 0	 230	 3	 1.1	 0.9;
	 47	 1	 0	 0	 0	 0	 1	 1	 0	 115	 3	 1.1	 0.9;
	 48	 2	 0	 0	 0	 0	 1	 1	 0	 13.8	 3	 1.1	 0.9;
	 49	 2	 0	 0	 0	 0	 1	 1	 0	 13.8	 3	 1.1	 0.9;
	 50	 2	 0	 0	 0	 0	 1	 1	 0	 13.8	 3	 1.1	 0.9;
	 51	 2	 0	 0	 0	 0	 1	 1	 0	 13.8	 3	 1.1	 0.9;
	 52	 2	 0	 0	 0	 0	 1	 1	 0	 13.8	 3	 1.1	 0.9;
	 53	 1	 8.97	 2.56	 0	 0	 1	 1	 0	 115	 4	 1.1	 0.9;
	 54	 1	 1.39	 0.4	 0	 0	 1	 1	 0	 115	 4	 1.1	 0.9;
	 55	 1	 0	 0	 0	 0	 1	 1	 0	 115	 4	 1.1	 0.9;
	 56	 2	 0	 0	 0	 0	 1	 1	 0	 13.8	 4	 1.1	 0.9;
	 57	 1	 19.01	 5.42	 0	 0	 1	 1	 0	 115	 3	 1.1	 0.9;
	 58	 1	 47.98	 13.67	 0	 0	 1	 1	 0	 115	 4	 1.1	 0.9;
	 59	 2	 0	 0	 0	 0	 1	 1	 0	 13.8	 4	 1.1	 0.9;
	 60	 2	 0	 0	 0	 0	 1	 1	 0	 13.8	 4	 1.1	 0.9;
	 61	 1	 10.69	 3.05	 0	 0	 1	 1	 0	 115	 5	 1.1	 0.9;
	 62	 1	 10.79	 3.07	 0	 0	 1	 1	 0	 115	 3	 1.1	 0.9;
	 63	 1	 37.57	 10.71	 0	 50	 1	 1	 0	 115	 3	 1.1	 0.9;
	 64	 1	 9.34	 2.66	 0	 0	 1	 1	 0	 115	 4	 1.1	 0.9;
];

mpc_regionR3.gen = [
%	bus         Pg          Qg          Qmax        Qmin        Vg          mBase       status      Pmax        Pmin        Pc1         Pc2         Qc1min      Qc1max      Qc2min      Qc2max      ramp_agc    ramp_10     ramp_30     ramp_q      apf         
	 31	 3.055	 0.81	 2.19	-0.57	 1	 5.64	 1	 4.7	 1.41;
	 32	 18.15	 4.8	 13.01	-3.41	 1	 33.5	 1	 27.92	 8.38;
	 33	 18.15	 4.8	 13.01	-3.41	 1	 33.5	 1	 27.92	 8.38;
	 34	 18.15	 4.8	 13.01	-3.41	 1	 33.5	 1	 27.92	 8.38;
	 35	 18.15	 4.8	 13.01	-3.41	 1	 33.5	 1	 27.92	 8.38;
	 36	 18.15	 4.8	 13.01	-3.41	 1	 33.5	 1	 27.92	 8.38;
	 37	 18.15	 4.8	 13.01	-3.41	 1	 33.5	 1	 27.92	 8.38;
	 42	 11.7	 3.095	 8.39	-2.2	 1	 21.6	 1	 18	 5.4;
	 48	 3.51	 0.93	 2.52	-0.66	 1	 6.48	 1	 5.4	 1.62;
	 49	 50.195	 13.285	 35.99	-9.42	 1	 92.67	 1	 77.22	 23.17;
	 50	 50.195	 13.285	 35.99	-9.42	 1	 92.67	 1	 77.22	 23.17;
	 51	 50.195	 13.285	 35.99	-9.42	 1	 92.67	 1	 77.22	 23.17;
	 52	 50.195	 13.285	 35.99	-9.42	 1	 92.67	 1	 77.22	 23.17;
	 56	 0	 0	 70.55	-15.38	 1	 166.32	 0	 138.6	 41.58;
	 59	 11.375	 3.01	 8.16	-2.14	 1	 21	 1	 17.5	 5.25;
	 60	 17.29	 4.575	 12.4	-3.25	 1	 31.92	 1	 26.6	 7.98;
];

mpc_regionR3.branch = [
%	fbus        tbus        r           x           b           rateA       rateB       rateC       ratio       angle       status      angmin      angmax      
	 2	 1	 0.000573	 0.003303	 0	 100	 100	 100	 0	 0	 1	-30	 30;
	 27	 1	 0.008505	 0.058098	 0.00988	 221.1	 221.1	 221.1	 0	 0	 1	-30	 30;
	 1	 44	 0.005889	 0.038035	 0.00726	 221.1	 221.1	 221.1	 0	 0	 1	-30	 30;
	 4	 3	 0.000534	 0.003533	 0	 100	 100	 100	 0	 0	 1	-30	 30;
	 5	 3	 0.000619	 0.003606	 0	 100	 100	 100	 0	 0	 1	-30	 30;
	 3	 7	 0.010408	 0.06722	 0.01282	 221.1	 221.1	 221.1	 0	 0	 1	-30	 30;
	 3	 41	 0.018394	 0.128141	 0.02095	 221.1	 221.1	 221.1	 0	 0	 1	-30	 30;
	 53	 3	 0.008519	 0.058199	 0.0099	 221.1	 221.1	 221.1	 0	 0	 1	-30	 30;
	 7	 6	 0.000637	 0.027526	 0	 300	 300	 300	 1	 0	 1	-30	 30;
	 6	 46	 0.009133	 0.065244	 0.11895	 402.36	 402.36	 402.36	 0	 0	 1	-30	 30;
	 8	 7	 0.000553	 0.0032	 0	 100	 100	 100	 0	 0	 1	-30	 30;
	 10	 9	 0.000503	 0.003926	 0	 100	 100	 100	 0	 0	 1	-30	 30;
	 11	 9	 0.000514	 0.003079	 0	 100	 100	 100	 0	 0	 1	-30	 30;
	 12	 9	 0.000623	 0.003339	 0	 100	 100	 100	 0	 0	 1	-30	 30;
	 13	 9	 0.00062	 0.00394	 0	 100	 100	 100	 0	 0	 1	-30	 30;
	 9	 43	 0.010316	 0.070473	 0.01199	 221.1	 221.1	 221.1	 0	 0	 1	-30	 30;
	 15	 14	 0.000616	 0.003222	 0	 100	 100	 100	 0	 0	 1	-30	 30;
	 16	 14	 0.000687	 0.003067	 0	 100	 100	 100	 0	 0	 1	-30	 30;
	 14	 17	 0.011379	 0.073494	 0.01402	 221.1	 221.1	 221.1	 0	 0	 1	-30	 30;
	 53	 14	 0.012701	 0.086769	 0.01476	 221.1	 221.1	 221.1	 0	 0	 1	-30	 30;
	 18	 17	 0.000587	 0.003964	 0	 100	 100	 100	 0	 0	 1	-30	 30;
	 17	 41	 0.025172	 0.175362	 0.02867	 221.1	 221.1	 221.1	 0	 0	 1	-30	 30;
	 17	 53	 0.020429	 0.131945	 0.02517	 221.1	 221.1	 221.1	 0	 0	 1	-30	 30;
	 20	 19	 0.000575	 0.003674	 0	 100	 100	 100	 0	 0	 1	-30	 30;
	 19	 26	 0.006268	 0.042819	 0.00729	 221.1	 221.1	 221.1	 0	 0	 1	-30	 30;
	 19	 44	 0.006911	 0.044639	 0.00852	 221.1	 221.1	 221.1	 0	 0	 1	-30	 30;
	 22	 21	 0.000505	 0.003103	 0	 100	 100	 100	 0	 0	 1	-30	 30;
	 21	 38	 0.008702	 0.060625	 0.00991	 221.1	 221.1	 221.1	 0	 0	 1	-30	 30;
	 54	 21	 0.007332	 0.05108	 0.00835	 221.1	 221.1	 221.1	 0	 0	 1	-30	 30;
	 24	 23	 0.012256	 0.085383	 0.01396	 221.1	 221.1	 221.1	 0	 0	 1	-30	 30;
	 58	 23	 0.008008	 0.05579	 0.00912	 221.1	 221.1	 221.1	 0	 0	 1	-30	 30;
	 24	 64	 0.014813	 0.101195	 0.01722	 221.1	 221.1	 221.1	 0	 0	 1	-30	 30;
	 25	 26	 0.006678	 0.045623	 0.00776	 221.1	 221.1	 221.1	 0	 0	 1	-30	 30;
	 25	 30	 0.007339	 0.047401	 0.00904	 221.1	 221.1	 221.1	 0	 0	 1	-30	 30;
	 26	 30	 0.007051	 0.045544	 0.00869	 221.1	 221.1	 221.1	 0	 0	 1	-30	 30;
	 27	 54	 0.00752	 0.051369	 0.00874	 221.1	 221.1	 221.1	 0	 0	 1	-30	 30;
	 54	 28	 0.008634	 0.058979	 0.01003	 221.1	 221.1	 221.1	 0	 0	 1	-30	 30;
	 55	 28	 0.007628	 0.053144	 0.00869	 221.1	 221.1	 221.1	 0	 0	 1	-30	 30;
	 29	 30	 0.011949	 0.083244	 0.01361	 221.1	 221.1	 221.1	 0	 0	 1	-30	 30;
	 29	 61	 0.017963	 0.116023	 0.02214	 221.1	 221.1	 221.1	 0	 0	 1	-30	 30;
	 31	 30	 0.020951	 0.144786	 0	 30	 30	 30	 1	 0	 1	-30	 30;
	 32	 30	 0.00689	 0.264997	 0	 73	 73	 73	 1	 0	 1	-30	 30;
	 33	 30	 0.00441	 0.09499	 0	 70.5	 70.5	 70.5	 1	 0	 1	-30	 30;
	 34	 30	 0.00689	 0.199449	 0	 70.5	 70.5	 70.5	 1	 0	 1	-30	 30;
	 35	 30	 0.003528	 0.081544	 0	 68	 68	 68	 1	 0	 1	-30	 30;
	 36	 30	 0.003528	 0.074599	 0	 68	 68	 68	 1	 0	 1	-30	 30;
	 37	 30	 0.00689	 0.146423	 0	 65	 65	 65	 1	 0	 1	-30	 30;
	 30	 53	 0.004993	 0.032251	 0.00615	 221.1	 221.1	 221.1	 0	 0	 1	-30	 30;
	 38	 43	 0.007786	 0.050291	 0.00959	 221.1	 221.1	 221.1	 0	 0	 1	-30	 30;
	 40	 39	 0.000832	 0.034189	 0	 350	 350	 350	 1	 0	 1	-30	 30;
	 46	 39	 0.001621	 0.011579	 0.02111	 402.36	 402.36	 402.36	 0	 0	 1	-30	 30;
	 40	 47	 0.00557	 0.035973	 0.00686	 221.1	 221.1	 221.1	 0	 0	 1	-30	 30;
	 57	 40	 0.003859	 0.024922	 0.00475	 221.1	 221.1	 221.1	 0	 0	 1	-30	 30;
	 40	 63	 0.004258	 0.029088	 0.00495	 221.1	 221.1	 221.1	 0	 0	 1	-30	 30;
	 42	 41	 0.01068	 0.280602	 0	 62.1	 62.1	 62.1	 1	 0	 1	-30	 30;
	 45	 57	 0.008799	 0.060111	 0.01023	 221.1	 221.1	 221.1	 0	 0	 1	-30	 30;
	 62	 45	 0.010839	 0.075509	 0.01234	 221.1	 221.1	 221.1	 0	 0	 1	-30	 30;
	 47	 46	 0.000412	 0.020251	 0	 400	 400	 400	 1	 0	 1	-30	 30;
	 48	 46	 0.02267	 0.625521	 0	 20	 20	 20	 1	 0	 1	-30	 30;
	 49	 46	 0.00249	 0.141687	 0	 100	 100	 100	 1	 0	 1	-30	 30;
	 50	 46	 0.00549	 0.184603	 0	 100	 100	 100	 1	 0	 1	-30	 30;
	 51	 46	 0.00249	 0.10294	 0	 100	 100	 100	 1	 0	 1	-30	 30;
	 52	 46	 0.00249	 0.099835	 0	 100	 100	 100	 1	 0	 1	-30	 30;
	 62	 47	 0.013458	 0.091934	 0.01564	 221.1	 221.1	 221.1	 0	 0	 1	-30	 30;
	 63	 47	 0.003138	 0.021435	 0.00365	 221.1	 221.1	 221.1	 0	 0	 1	-30	 30;
	 56	 55	 0.00139	 0.080288	 0	 180.2	 180.2	 180.2	 1	 0	 1	-30	 30;
	 55	 58	 0.004296	 0.029345	 0.00499	 221.1	 221.1	 221.1	 0	 0	 1	-30	 30;
	 59	 58	 0.01099	 0.297746	 0	 60.3	 60.3	 60.3	 1	 0	 1	-30	 30;
	 60	 58	 0.004627	 0.114254	 0	 65	 65	 65	 1	 0	 1	-30	 30;
	 58	 63	 0.004395	 0.028384	 0.00542	 221.1	 221.1	 221.1	 0	 0	 1	-30	 30;
];

mpc_regionR3.gencost = [
%	2           startup     shutdown    n           c(n-1)...c0 
	 2	 0	 0	 3	 0.002	 19	 236.13;
	 2	 0	 0	 3	 0.002	 19	 236.74;
	 2	 0	 0	 3	 0.002	 19	 236.74;
	 2	 0	 0	 3	 0.002	 19	 236.74;
	 2	 0	 0	 3	 0.002	 19	 236.74;
	 2	 0	 0	 3	 0.002	 19	 236.74;
	 2	 0	 0	 3	 0.002	 19	 236.74;
	 2	 0	 0	 3	 0.002	 19	 236.48;
	 2	 0	 0	 3	 0.002	 19	 236.14;
	 2	 0	 0	 3	 0.002	 19	 253.01;
	 2	 0	 0	 3	 0.002	 19	 253.01;
	 2	 0	 0	 3	 0.002	 19	 253.01;
	 2	 0	 0	 3	 0.002	 19	 253.01;
	 2	 0	 0	 3	 0.002	 24.07	 807.9;
	 2	 0	 0	 3	 0.002	 19	 236.47;
	 2	 0	 0	 3	 0.002	 19	 236.71;
];


% ---------- Interregional Tie-Line Information ----------
% Each row: {From_Region (string), To_Region (string), Branch_Data (1x13 array)}
% Branch_Data: {fbus, tbus, r, x, b, rateA, rateB, rateC, ratio, angle, status, angmin, angmax}

interregional_tielines_total = {
	{'mpc_regionR3', 'mpc_regionR2', [ 6	 21	 0.007013	 0.050098	 0.09134	 402.36	 402.36	 402.36	 0	 0	 1	-30	 30]},
	{'mpc_regionR1', 'mpc_regionR3', [ 48	 9	 0.009789	 0.068198	 0.01115	 221.1	 221.1	 221.1	 0	 0	 1	-30	 30]},
	{'mpc_regionR1', 'mpc_regionR2', [ 16	 41	 0.003474	 0.024821	 0.04525	 402.36	 402.36	 402.36	 0	 0	 1	-30	 30]},
	{'mpc_regionR2', 'mpc_regionR1', [ 22	 17	 0.010129	 0.065419	 0.01248	 221.1	 221.1	 221.1	 0	 0	 1	-30	 30]},
	{'mpc_regionR2', 'mpc_regionR1', [ 16	 18	 0.005467	 0.039054	 0.0712	 402.36	 402.36	 402.36	 0	 0	 1	-30	 30]},
	{'mpc_regionR2', 'mpc_regionR1', [ 42	 32	 0.00805	 0.051996	 0.00992	 221.1	 221.1	 221.1	 0	 0	 1	-30	 30]},
	{'mpc_regionR3', 'mpc_regionR2', [ 41	 45	 0.022088	 0.142662	 0.02722	 221.1	 221.1	 221.1	 0	 0	 1	-30	 30]},
	{'mpc_regionR1', 'mpc_regionR3', [ 37	 64	 0.01318	 0.085125	 0.01624	 221.1	 221.1	 221.1	 0	 0	 1	-30	 30]},
	{'mpc_regionR2', 'mpc_regionR3', [ 19	 61	 0.012745	 0.08879	 0.01451	 221.1	 221.1	 221.1	 0	 0	 1	-30	 30]},
	{'mpc_regionR2', 'mpc_regionR1', [ 23	 72	 0.026477	 0.184455	 0.03015	 221.1	 221.1	 221.1	 0	 0	 1	-30	 30]},
};

